Version 4
SHEET 1 880 680
WIRE -304 -336 -320 -336
WIRE -304 -304 -304 -336
WIRE 64 -304 48 -304
WIRE 128 -304 64 -304
WIRE 304 -304 208 -304
WIRE 304 -272 304 -304
WIRE -128 -256 -144 -256
WIRE -32 -256 -48 -256
WIRE -16 -256 -32 -256
WIRE -304 -208 -304 -224
WIRE -304 -208 -416 -208
WIRE 48 -176 48 -208
WIRE 48 -176 32 -176
WIRE 176 -176 112 -176
WIRE -416 -160 -416 -208
WIRE 304 -160 304 -192
WIRE 48 -128 48 -176
WIRE 176 -80 176 -96
WIRE 48 -32 48 -48
FLAG -416 -160 0
FLAG -320 -336 Vs
FLAG -144 -256 Vs
FLAG -32 -256 VB
FLAG 64 -304 VC
FLAG 304 -160 0
FLAG 176 -80 0
FLAG 32 -176 VE
IOPIN 32 -176 Out
FLAG 48 -32 0
SYMBOL voltage -304 -320 R0
WINDOW 0 39 71 Left 2
WINDOW 3 34 51 Left 2
WINDOW 123 0 0 Left 0
WINDOW 39 0 0 Left 0
SYMATTR InstName VS
SYMATTR Value 0V
SYMBOL res -32 -272 R90
WINDOW 0 0 56 VBottom 2
WINDOW 3 32 56 VTop 2
SYMATTR InstName R1
SYMATTR Value 100k
SYMBOL npn -16 -304 R0
WINDOW 0 56 32 Left 1
WINDOW 3 56 68 Left 1
SYMATTR InstName Q1
SYMATTR Value 2N3904
SYMBOL voltage 304 -288 R0
SYMATTR InstName V1
SYMATTR Value 5
SYMBOL res 224 -320 R90
WINDOW 0 0 56 VBottom 2
WINDOW 3 32 56 VTop 2
SYMATTR InstName R2
SYMATTR Value 567.47
SYMBOL res 32 -144 R0
WINDOW 3 36 76 Left 1
SYMATTR Value 5k
SYMATTR InstName R3
SYMBOL diode 48 -160 R270
WINDOW 0 32 32 VTop 2
WINDOW 3 0 32 VBottom 2
SYMATTR InstName D1
SYMBOL res 160 -192 R0
SYMATTR InstName R4
SYMATTR Value 10k
TEXT -336 -392 Left 2 ;"Water Storage Tank is Ful" Indicator Simulation
TEXT -472 -288 Left 1 ;This Voltage \nwill come from\nthe water storage\ntank when it's filled.
TEXT -248 -144 Left 1 !.dc V1 0 5 0.1
TEXT -248 -128 Left 1 !*.tran 0.1m 10m 6m
TEXT -248 -112 Left 1 !*.step param R2 10 10000 100
TEXT -248 -96 Left 1 !*.step param R3 10 10000 100
